Circuit: * C:\Users\Simon\Desktop\GIT\Analog Filter\Analog_Filter_EMG.asc

Direct Newton iteration for .op point succeeded.

Date: Thu Sep 05 13:33:01 2019
Total elapsed time: 0.148 seconds.

tnom = 27
temp = 27
method = trap
totiter = 3
traniter = 0
tranpoints = 0
accept = 0
rejected = 0
matrix size = 59
fillins = 40
solver = Normal
Matrix Compiler1:     302 opcodes
Matrix Compiler2: 6.90 KB object code size
